*SPEF "ieee 1481-1999"
*DESIGN "PLL"
*DATE "11:11:11 Fri 11 11, 1111"
*VENDOR "OpenRCX"
*PROGRAM "Parallel Extraction"
*VERSION "1.0"
*DESIGN_FLOW "NAME_SCOPE LOCAL" "PIN_CAP NONE"
*DIVIDER /
*DELIMITER :
*BUS_DELIMITER []
*T_UNIT 1 NS
*C_UNIT 1 PF
*R_UNIT 1 OHM
*L_UNIT 1 HENRY

*NAME_MAP
*1 Vout
*2 Vref
*3 _00_
*4 _01_
*5 _02_
*6 fd0\.d0\.d
*7 fd0\.d0\.q
*8 fd0\.d1\.d
*9 fd0\.d1\.q
*10 fd0\.d2\.d
*11 fd0\.d2\.q
*12 pfd0\.DN
*13 pfd0\.UP
*14 vco_in
*15 _03_
*16 _04_
*17 _05_
*18 _06_
*19 _07_
*20 _08_
*21 _09_
*22 _10_
*23 _11_
*24 _12_
*25 _13_
*26 cp0
*27 vco0
*28 PHY_0
*29 PHY_1
*30 PHY_2
*31 PHY_3
*32 PHY_4
*33 PHY_5
*34 PHY_6
*35 PHY_7
*36 PHY_8
*37 PHY_9
*38 PHY_10
*39 PHY_11
*40 PHY_12
*41 PHY_13
*42 PHY_14
*43 PHY_15
*44 PHY_16
*45 PHY_17
*46 PHY_18
*47 PHY_19
*48 PHY_20
*49 PHY_21
*50 PHY_22
*51 PHY_23
*52 PHY_24
*53 PHY_25
*54 PHY_26
*55 PHY_27
*56 PHY_28
*57 PHY_29
*58 PHY_30
*59 PHY_31
*60 PHY_32
*61 PHY_33
*62 PHY_34
*63 PHY_35
*64 PHY_36
*65 PHY_37
*66 PHY_38
*67 PHY_39
*68 PHY_40
*69 PHY_41
*70 PHY_42
*71 PHY_43
*72 PHY_44
*73 PHY_45
*74 PHY_46
*75 PHY_47
*76 PHY_48
*77 PHY_49
*78 PHY_50
*79 PHY_51
*80 PHY_52
*81 PHY_53
*82 PHY_54
*83 PHY_55
*84 PHY_56
*85 PHY_57
*86 PHY_58
*87 PHY_59
*88 PHY_60
*89 PHY_61
*90 PHY_62
*91 PHY_63
*92 PHY_64
*93 PHY_65
*94 PHY_66
*95 PHY_67
*96 PHY_68
*97 PHY_69
*98 PHY_70
*99 PHY_71
*100 PHY_72
*101 PHY_73
*102 PHY_74
*103 PHY_75
*104 PHY_76
*105 PHY_77
*106 PHY_78
*107 PHY_79
*108 PHY_80
*109 PHY_81
*110 PHY_82
*111 PHY_83
*112 PHY_84
*113 PHY_85
*114 PHY_86
*115 PHY_87
*116 PHY_88
*117 PHY_89
*118 PHY_90
*119 PHY_91
*120 PHY_92
*121 PHY_93
*122 PHY_94
*123 PHY_95
*124 PHY_96
*125 PHY_97
*126 PHY_98
*127 PHY_99
*128 PHY_100
*129 PHY_101
*130 PHY_102
*131 PHY_103
*132 PHY_104
*133 PHY_105
*134 PHY_106
*135 PHY_107
*136 PHY_108
*137 PHY_109
*138 PHY_110
*139 PHY_111
*140 PHY_112
*141 PHY_113
*142 PHY_114
*143 PHY_115
*144 PHY_116
*145 PHY_117
*146 PHY_118
*147 PHY_119
*148 PHY_120
*149 PHY_121
*150 PHY_122
*151 PHY_123
*152 PHY_124
*153 PHY_125
*154 PHY_126
*155 PHY_127
*156 PHY_128
*157 PHY_129
*158 PHY_130
*159 PHY_131
*160 PHY_132
*161 PHY_133
*162 PHY_134
*163 PHY_135
*164 PHY_136
*165 PHY_137
*166 PHY_138
*167 PHY_139
*168 PHY_140
*169 PHY_141
*170 PHY_142
*171 PHY_143
*172 PHY_144
*173 PHY_145
*174 PHY_146
*175 PHY_147
*176 PHY_148
*177 PHY_149
*178 PHY_150
*179 PHY_151
*180 PHY_152
*181 PHY_153
*182 PHY_154
*183 PHY_155
*184 PHY_156
*185 PHY_157
*186 PHY_158
*187 PHY_159
*188 PHY_160
*189 PHY_161
*190 PHY_162
*191 PHY_163
*192 PHY_164
*193 PHY_165
*194 PHY_166
*195 PHY_167
*196 PHY_168
*197 PHY_169
*198 PHY_170
*199 PHY_171
*200 PHY_172
*201 PHY_173
*202 PHY_174
*203 PHY_175
*204 PHY_176
*205 PHY_177
*206 PHY_178
*207 PHY_179
*208 PHY_180
*209 PHY_181
*210 PHY_182
*211 PHY_183
*212 PHY_184
*213 PHY_185
*214 PHY_186
*215 PHY_187
*216 PHY_188
*217 PHY_189
*218 PHY_190
*219 PHY_191
*220 PHY_192
*221 PHY_193
*222 PHY_194
*223 PHY_195
*224 PHY_196
*225 PHY_197
*226 PHY_198
*227 PHY_199
*228 PHY_200
*229 PHY_201
*230 PHY_202
*231 PHY_203
*232 PHY_204
*233 PHY_205
*234 PHY_206
*235 PHY_207
*236 PHY_208
*237 PHY_209
*238 PHY_210
*239 PHY_211
*240 PHY_212
*241 PHY_213
*242 PHY_214
*243 PHY_215
*244 PHY_216
*245 PHY_217
*246 PHY_218
*247 PHY_219
*248 PHY_220
*249 PHY_221
*250 PHY_222
*251 PHY_223
*252 PHY_224
*253 PHY_225
*254 PHY_226
*255 PHY_227
*256 PHY_228
*257 PHY_229
*258 PHY_230
*259 PHY_231
*260 PHY_232
*261 PHY_233
*262 PHY_234
*263 PHY_235
*264 PHY_236
*265 PHY_237
*266 PHY_238
*267 PHY_239
*268 PHY_240
*269 PHY_241
*270 PHY_242
*271 PHY_243
*272 PHY_244
*273 PHY_245
*274 PHY_246
*275 PHY_247
*276 PHY_248
*277 PHY_249
*278 PHY_250
*279 PHY_251
*280 PHY_252
*281 PHY_253
*282 PHY_254
*283 PHY_255
*284 PHY_256
*285 PHY_257
*286 PHY_258
*287 PHY_259
*288 PHY_260
*289 PHY_261
*290 PHY_262
*291 PHY_263
*292 PHY_264
*293 PHY_265
*294 PHY_266
*295 PHY_267
*296 PHY_268
*297 PHY_269
*298 PHY_270
*299 PHY_271
*300 PHY_272
*301 PHY_273
*302 PHY_274
*303 PHY_275
*304 PHY_276
*305 PHY_277
*306 PHY_278
*307 PHY_279
*308 PHY_280
*309 PHY_281
*310 PHY_282
*311 PHY_283
*312 PHY_284
*313 PHY_285
*314 PHY_286
*315 PHY_287
*316 PHY_288
*317 PHY_289
*318 PHY_290
*319 PHY_291
*320 PHY_292
*321 PHY_293
*322 PHY_294
*323 PHY_295
*324 PHY_296
*325 PHY_297
*326 PHY_298
*327 PHY_299
*328 PHY_300
*329 PHY_301
*330 PHY_302
*331 PHY_303
*332 PHY_304
*333 PHY_305
*334 PHY_306
*335 PHY_307
*336 PHY_308
*337 PHY_309
*338 PHY_310
*339 PHY_311
*340 PHY_312
*341 PHY_313
*342 PHY_314
*343 PHY_315
*344 PHY_316
*345 PHY_317
*346 PHY_318
*347 PHY_319
*348 PHY_320
*349 PHY_321
*350 PHY_322
*351 PHY_323
*352 PHY_324
*353 PHY_325
*354 PHY_326
*355 PHY_327
*356 PHY_328
*357 PHY_329
*358 PHY_330
*359 PHY_331
*360 PHY_332
*361 PHY_333
*362 PHY_334
*363 PHY_335
*364 PHY_336
*365 PHY_337
*366 PHY_338
*367 PHY_339
*368 PHY_340
*369 PHY_341
*370 PHY_342
*371 PHY_343
*372 PHY_344
*373 PHY_345
*374 PHY_346
*375 PHY_347
*376 PHY_348
*377 PHY_349
*378 PHY_350
*379 PHY_351
*380 PHY_352
*381 PHY_353
*382 PHY_354
*383 PHY_355
*384 PHY_356
*385 PHY_357
*386 PHY_358
*387 PHY_359
*388 PHY_360
*389 PHY_361
*390 PHY_362
*391 PHY_363
*392 PHY_364
*393 PHY_365
*394 PHY_366
*395 PHY_367
*396 PHY_368
*397 PHY_369
*398 PHY_370
*399 PHY_371
*400 PHY_372
*401 PHY_373
*402 PHY_374
*403 PHY_375
*404 PHY_376
*405 PHY_377
*406 PHY_378
*407 PHY_379
*408 PHY_380
*409 PHY_381
*410 PHY_382
*411 PHY_383
*412 PHY_384
*413 PHY_385
*414 PHY_386
*415 PHY_387
*416 PHY_388
*417 PHY_389
*418 PHY_390
*419 PHY_391
*420 PHY_392
*421 PHY_393
*422 PHY_394
*423 PHY_395
*424 PHY_396
*425 PHY_397
*426 PHY_398
*427 PHY_399
*428 PHY_400
*429 PHY_401
*430 PHY_402
*431 PHY_403
*432 PHY_404
*433 PHY_405
*434 PHY_406
*435 PHY_407
*436 PHY_408
*437 PHY_409
*438 PHY_410
*439 PHY_411
*440 TAP_412
*441 TAP_413
*442 TAP_414
*443 TAP_415
*444 TAP_416
*445 TAP_417
*446 TAP_418
*447 TAP_419
*448 TAP_420
*449 TAP_421
*450 TAP_422
*451 TAP_423
*452 TAP_424
*453 TAP_425
*454 TAP_426
*455 TAP_427
*456 TAP_428
*457 TAP_429
*458 TAP_430
*459 TAP_431
*460 TAP_432
*461 TAP_433
*462 TAP_434
*463 TAP_435
*464 TAP_436
*465 TAP_437
*466 TAP_438
*467 TAP_439
*468 TAP_440
*469 TAP_441
*470 TAP_442
*471 TAP_443
*472 TAP_444
*473 TAP_445
*474 TAP_446
*475 TAP_447
*476 TAP_448
*477 TAP_449
*478 TAP_450
*479 TAP_451
*480 TAP_452
*481 TAP_453
*482 TAP_454
*483 TAP_455
*484 TAP_456
*485 TAP_457
*486 TAP_458
*487 TAP_459
*488 TAP_460
*489 TAP_461
*490 TAP_462
*491 TAP_463
*492 TAP_464
*493 TAP_465
*494 TAP_466
*495 TAP_467
*496 TAP_468
*497 TAP_469
*498 TAP_470
*499 TAP_471
*500 TAP_472
*501 TAP_473
*502 TAP_474
*503 TAP_475
*504 TAP_476
*505 TAP_477
*506 TAP_478
*507 TAP_479
*508 TAP_480
*509 TAP_481
*510 TAP_482
*511 TAP_483
*512 TAP_484
*513 TAP_485
*514 TAP_486
*515 TAP_487
*516 TAP_488
*517 TAP_489
*518 TAP_490
*519 TAP_491
*520 TAP_492
*521 TAP_493
*522 TAP_494
*523 TAP_495
*524 TAP_496
*525 TAP_497
*526 TAP_498
*527 TAP_499
*528 TAP_500
*529 TAP_501
*530 TAP_502
*531 TAP_503
*532 TAP_504
*533 TAP_505
*534 TAP_506
*535 TAP_507
*536 TAP_508
*537 TAP_509
*538 TAP_510
*539 TAP_511
*540 TAP_512
*541 TAP_513
*542 TAP_514
*543 TAP_515
*544 TAP_516
*545 TAP_517
*546 TAP_518
*547 TAP_519
*548 TAP_520
*549 TAP_521
*550 TAP_522
*551 TAP_523
*552 TAP_524
*553 TAP_525
*554 TAP_526
*555 TAP_527
*556 TAP_528
*557 TAP_529
*558 TAP_530
*559 TAP_531
*560 TAP_532
*561 TAP_533
*562 TAP_534
*563 TAP_535
*564 TAP_536
*565 TAP_537
*566 TAP_538
*567 TAP_539
*568 TAP_540
*569 TAP_541
*570 TAP_542
*571 TAP_543
*572 TAP_544
*573 TAP_545
*574 TAP_546
*575 TAP_547
*576 TAP_548
*577 TAP_549
*578 TAP_550
*579 TAP_551
*580 TAP_552
*581 TAP_553
*582 TAP_554
*583 TAP_555
*584 TAP_556
*585 TAP_557
*586 TAP_558
*587 TAP_559
*588 TAP_560
*589 TAP_561
*590 TAP_562
*591 TAP_563
*592 TAP_564
*593 TAP_565
*594 TAP_566
*595 TAP_567
*596 TAP_568
*597 TAP_569
*598 TAP_570
*599 TAP_571
*600 TAP_572
*601 TAP_573
*602 TAP_574
*603 TAP_575
*604 TAP_576
*605 TAP_577
*606 TAP_578
*607 TAP_579
*608 TAP_580
*609 TAP_581
*610 TAP_582
*611 TAP_583
*612 TAP_584
*613 TAP_585
*614 TAP_586
*615 TAP_587
*616 TAP_588
*617 TAP_589
*618 TAP_590
*619 TAP_591
*620 TAP_592
*621 TAP_593
*622 TAP_594
*623 TAP_595
*624 TAP_596
*625 TAP_597
*626 TAP_598
*627 TAP_599
*628 TAP_600
*629 TAP_601
*630 TAP_602
*631 TAP_603
*632 TAP_604
*633 TAP_605
*634 TAP_606
*635 TAP_607
*636 TAP_608
*637 TAP_609
*638 TAP_610
*639 TAP_611
*640 TAP_612
*641 TAP_613
*642 TAP_614
*643 TAP_615
*644 TAP_616
*645 TAP_617
*646 TAP_618
*647 TAP_619
*648 TAP_620
*649 TAP_621
*650 TAP_622
*651 TAP_623
*652 TAP_624
*653 TAP_625
*654 TAP_626
*655 TAP_627
*656 TAP_628
*657 TAP_629
*658 TAP_630
*659 TAP_631
*660 TAP_632
*661 TAP_633
*662 TAP_634
*663 TAP_635
*664 TAP_636
*665 TAP_637
*666 TAP_638
*667 TAP_639
*668 TAP_640
*669 TAP_641
*670 TAP_642
*671 TAP_643
*672 TAP_644
*673 TAP_645
*674 TAP_646
*675 TAP_647
*676 TAP_648
*677 TAP_649
*678 TAP_650
*679 TAP_651
*680 TAP_652
*681 TAP_653
*682 TAP_654
*683 TAP_655
*684 TAP_656
*685 TAP_657
*686 TAP_658
*687 TAP_659
*688 TAP_660
*689 TAP_661
*690 TAP_662
*691 TAP_663
*692 TAP_664
*693 TAP_665
*694 TAP_666
*695 TAP_667
*696 TAP_668
*697 TAP_669
*698 TAP_670
*699 TAP_671
*700 TAP_672
*701 TAP_673
*702 TAP_674
*703 TAP_675
*704 TAP_676
*705 TAP_677
*706 TAP_678
*707 TAP_679
*708 TAP_680
*709 TAP_681
*710 TAP_682
*711 TAP_683
*712 TAP_684
*713 TAP_685
*714 TAP_686
*715 TAP_687
*716 TAP_688
*717 TAP_689
*718 TAP_690
*719 TAP_691
*720 TAP_692
*721 TAP_693
*722 TAP_694
*723 TAP_695
*724 TAP_696
*725 TAP_697
*726 TAP_698
*727 TAP_699
*728 TAP_700
*729 TAP_701
*730 TAP_702
*731 TAP_703
*732 TAP_704
*733 TAP_705
*734 TAP_706
*735 TAP_707
*736 TAP_708
*737 TAP_709
*738 TAP_710
*739 TAP_711
*740 TAP_712
*741 TAP_713
*742 TAP_714
*743 TAP_715
*744 TAP_716
*745 TAP_717
*746 TAP_718
*747 TAP_719
*748 TAP_720
*749 TAP_721
*750 TAP_722
*751 TAP_723
*752 TAP_724
*753 TAP_725
*754 TAP_726
*755 TAP_727
*756 TAP_728
*757 TAP_729
*758 TAP_730
*759 TAP_731
*760 TAP_732
*761 TAP_733
*762 TAP_734
*763 TAP_735
*764 TAP_736
*765 TAP_737
*766 TAP_738
*767 TAP_739
*768 TAP_740
*769 TAP_741
*770 TAP_742
*771 TAP_743
*772 TAP_744
*773 TAP_745
*774 TAP_746
*775 TAP_747
*776 TAP_748
*777 TAP_749
*778 TAP_750
*779 TAP_751
*780 TAP_752
*781 TAP_753
*782 TAP_754
*783 TAP_755
*784 TAP_756
*785 TAP_757
*786 TAP_758
*787 TAP_759
*788 TAP_760
*789 TAP_761
*790 TAP_762
*791 TAP_763
*792 TAP_764
*793 TAP_765
*794 TAP_766
*795 TAP_767
*796 TAP_768
*797 TAP_769
*798 TAP_770
*799 TAP_771
*800 TAP_772
*801 TAP_773
*802 TAP_774
*803 TAP_775
*804 TAP_776
*805 TAP_777
*806 TAP_778
*807 TAP_779
*808 TAP_780
*809 TAP_781
*810 TAP_782
*811 TAP_783
*812 TAP_784
*813 TAP_785
*814 TAP_786
*815 TAP_787
*816 TAP_788
*817 TAP_789
*818 TAP_790
*819 TAP_791
*820 TAP_792
*821 TAP_793
*822 TAP_794
*823 TAP_795
*824 TAP_796
*825 TAP_797
*826 TAP_798
*827 TAP_799
*828 TAP_800
*829 TAP_801
*830 TAP_802
*831 TAP_803
*832 TAP_804
*833 TAP_805
*834 TAP_806
*835 TAP_807
*836 TAP_808
*837 TAP_809
*838 TAP_810
*839 TAP_811
*840 TAP_812
*841 TAP_813
*842 TAP_814
*843 TAP_815
*844 TAP_816
*845 TAP_817
*846 TAP_818
*847 TAP_819
*848 TAP_820
*849 TAP_821
*850 TAP_822
*851 TAP_823
*852 TAP_824
*853 TAP_825
*854 TAP_826
*855 TAP_827
*856 TAP_828
*857 TAP_829
*858 TAP_830
*859 TAP_831
*860 TAP_832
*861 TAP_833
*862 TAP_834
*863 TAP_835
*864 TAP_836
*865 TAP_837
*866 TAP_838
*867 TAP_839
*868 TAP_840
*869 TAP_841
*870 TAP_842
*871 TAP_843
*872 TAP_844
*873 TAP_845
*874 TAP_846
*875 TAP_847
*876 TAP_848
*877 TAP_849
*878 TAP_850
*879 TAP_851
*880 TAP_852
*881 TAP_853
*882 TAP_854
*883 TAP_855
*884 TAP_856
*885 TAP_857
*886 TAP_858
*887 TAP_859
*888 TAP_860
*889 TAP_861
*890 TAP_862
*891 TAP_863
*892 TAP_864
*893 TAP_865
*894 TAP_866
*895 TAP_867
*896 TAP_868
*897 TAP_869
*898 TAP_870
*899 TAP_871
*900 TAP_872
*901 TAP_873
*902 TAP_874
*903 TAP_875
*904 TAP_876
*905 TAP_877
*906 TAP_878
*907 TAP_879
*908 TAP_880
*909 TAP_881
*910 TAP_882
*911 TAP_883
*912 TAP_884
*913 TAP_885
*914 TAP_886
*915 TAP_887
*916 TAP_888
*917 TAP_889
*918 TAP_890
*919 TAP_891
*920 TAP_892
*921 TAP_893
*922 TAP_894
*923 TAP_895
*924 TAP_896
*925 TAP_897
*926 TAP_898
*927 TAP_899
*928 TAP_900
*929 TAP_901
*930 TAP_902
*931 TAP_903
*932 TAP_904
*933 TAP_905
*934 TAP_906
*935 TAP_907
*936 TAP_908
*937 TAP_909
*938 TAP_910
*939 TAP_911
*940 TAP_912
*941 TAP_913
*942 TAP_914
*943 FILLER_0_4
*944 FILLER_0_12
*945 FILLER_0_20
*946 FILLER_0_28
*947 FILLER_0_31
*948 FILLER_0_39
*949 FILLER_0_47
*950 FILLER_0_55
*951 FILLER_0_59
*952 FILLER_0_61
*953 FILLER_0_69
*954 FILLER_0_77
*955 FILLER_0_85
*956 FILLER_0_89
*957 FILLER_0_91
*958 FILLER_0_99
*959 FILLER_0_107
*960 FILLER_0_115
*961 FILLER_0_119
*962 FILLER_0_121
*963 FILLER_0_129
*964 FILLER_0_137
*965 FILLER_0_145
*966 FILLER_0_149
*967 FILLER_0_151
*968 FILLER_0_159
*969 FILLER_0_167
*970 FILLER_0_175
*971 FILLER_0_179
*972 FILLER_0_181
*973 FILLER_0_189
*974 FILLER_0_197
*975 FILLER_0_205
*976 FILLER_0_209
*977 FILLER_0_211
*978 FILLER_0_219
*979 FILLER_0_227
*980 FILLER_0_235
*981 FILLER_0_239
*982 FILLER_0_241
*983 FILLER_0_249
*984 FILLER_0_257
*985 FILLER_0_265
*986 FILLER_0_269
*987 FILLER_0_271
*988 FILLER_0_279
*989 FILLER_0_287
*990 FILLER_0_295
*991 FILLER_0_299
*992 FILLER_0_301
*993 FILLER_0_309
*994 FILLER_0_317
*995 FILLER_0_325
*996 FILLER_0_329
*997 FILLER_0_331
*998 FILLER_0_339
*999 FILLER_0_347
*1000 FILLER_0_355
*1001 FILLER_0_359
*1002 FILLER_0_361
*1003 FILLER_0_369
*1004 FILLER_0_377
*1005 FILLER_0_385
*1006 FILLER_0_389
*1007 FILLER_0_391
*1008 FILLER_0_399
*1009 FILLER_0_407
*1010 FILLER_0_415
*1011 FILLER_0_419
*1012 FILLER_0_421
*1013 FILLER_0_429
*1014 FILLER_0_437
*1015 FILLER_0_445
*1016 FILLER_0_449
*1017 FILLER_0_451
*1018 FILLER_0_459
*1019 FILLER_1_4
*1020 FILLER_1_12
*1021 FILLER_1_20
*1022 FILLER_1_28
*1023 FILLER_1_36
*1024 FILLER_1_44
*1025 FILLER_1_52
*1026 FILLER_1_61
*1027 FILLER_1_69
*1028 FILLER_1_77
*1029 FILLER_1_85
*1030 FILLER_1_93
*1031 FILLER_1_101
*1032 FILLER_1_109
*1033 FILLER_1_117
*1034 FILLER_1_119
*1035 FILLER_1_121
*1036 FILLER_1_129
*1037 FILLER_1_137
*1038 FILLER_1_145
*1039 FILLER_1_153
*1040 FILLER_1_161
*1041 FILLER_1_169
*1042 FILLER_1_177
*1043 FILLER_1_179
*1044 FILLER_1_181
*1045 FILLER_1_189
*1046 FILLER_1_197
*1047 FILLER_1_205
*1048 FILLER_1_213
*1049 FILLER_1_221
*1050 FILLER_1_229
*1051 FILLER_1_237
*1052 FILLER_1_239
*1053 FILLER_1_241
*1054 FILLER_1_249
*1055 FILLER_1_257
*1056 FILLER_1_265
*1057 FILLER_1_273
*1058 FILLER_1_281
*1059 FILLER_1_289
*1060 FILLER_1_297
*1061 FILLER_1_299
*1062 FILLER_1_301
*1063 FILLER_1_309
*1064 FILLER_1_317
*1065 FILLER_1_325
*1066 FILLER_1_333
*1067 FILLER_1_341
*1068 FILLER_1_349
*1069 FILLER_1_357
*1070 FILLER_1_359
*1071 FILLER_1_361
*1072 FILLER_1_369
*1073 FILLER_1_377
*1074 FILLER_1_385
*1075 FILLER_1_393
*1076 FILLER_1_401
*1077 FILLER_1_409
*1078 FILLER_1_417
*1079 FILLER_1_419
*1080 FILLER_1_421
*1081 FILLER_1_429
*1082 FILLER_1_437
*1083 FILLER_1_445
*1084 FILLER_1_453
*1085 FILLER_1_461
*1086 FILLER_2_4
*1087 FILLER_2_12
*1088 FILLER_2_20
*1089 FILLER_2_28
*1090 FILLER_2_31
*1091 FILLER_2_39
*1092 FILLER_2_47
*1093 FILLER_2_55
*1094 FILLER_2_63
*1095 FILLER_2_71
*1096 FILLER_2_79
*1097 FILLER_2_87
*1098 FILLER_2_89
*1099 FILLER_2_91
*1100 FILLER_2_99
*1101 FILLER_2_107
*1102 FILLER_2_115
*1103 FILLER_2_123
*1104 FILLER_2_131
*1105 FILLER_2_139
*1106 FILLER_2_147
*1107 FILLER_2_149
*1108 FILLER_2_151
*1109 FILLER_2_159
*1110 FILLER_2_167
*1111 FILLER_2_175
*1112 FILLER_2_183
*1113 FILLER_2_191
*1114 FILLER_2_199
*1115 FILLER_2_207
*1116 FILLER_2_209
*1117 FILLER_2_211
*1118 FILLER_2_219
*1119 FILLER_2_227
*1120 FILLER_2_235
*1121 FILLER_2_243
*1122 FILLER_2_251
*1123 FILLER_2_259
*1124 FILLER_2_267
*1125 FILLER_2_269
*1126 FILLER_2_271
*1127 FILLER_2_279
*1128 FILLER_2_287
*1129 FILLER_2_295
*1130 FILLER_2_303
*1131 FILLER_2_311
*1132 FILLER_2_319
*1133 FILLER_2_327
*1134 FILLER_2_329
*1135 FILLER_2_331
*1136 FILLER_2_339
*1137 FILLER_2_347
*1138 FILLER_2_355
*1139 FILLER_2_363
*1140 FILLER_2_371
*1141 FILLER_2_379
*1142 FILLER_2_387
*1143 FILLER_2_389
*1144 FILLER_2_391
*1145 FILLER_2_399
*1146 FILLER_2_407
*1147 FILLER_2_415
*1148 FILLER_2_423
*1149 FILLER_2_431
*1150 FILLER_2_439
*1151 FILLER_2_447
*1152 FILLER_2_449
*1153 FILLER_2_451
*1154 FILLER_2_459
*1155 FILLER_3_4
*1156 FILLER_3_12
*1157 FILLER_3_16
*1158 FILLER_3_18
*1159 FILLER_3_22
*1160 FILLER_3_30
*1161 FILLER_3_38
*1162 FILLER_3_46
*1163 FILLER_3_54
*1164 FILLER_3_58
*1165 FILLER_3_61
*1166 FILLER_3_69
*1167 FILLER_3_77
*1168 FILLER_3_85
*1169 FILLER_3_93
*1170 FILLER_3_101
*1171 FILLER_3_109
*1172 FILLER_3_117
*1173 FILLER_3_119
*1174 FILLER_3_121
*1175 FILLER_3_129
*1176 FILLER_3_137
*1177 FILLER_3_145
*1178 FILLER_3_153
*1179 FILLER_3_161
*1180 FILLER_3_169
*1181 FILLER_3_177
*1182 FILLER_3_179
*1183 FILLER_3_181
*1184 FILLER_3_189
*1185 FILLER_3_197
*1186 FILLER_3_205
*1187 FILLER_3_213
*1188 FILLER_3_221
*1189 FILLER_3_229
*1190 FILLER_3_237
*1191 FILLER_3_239
*1192 FILLER_3_241
*1193 FILLER_3_249
*1194 FILLER_3_257
*1195 FILLER_3_265
*1196 FILLER_3_273
*1197 FILLER_3_281
*1198 FILLER_3_289
*1199 FILLER_3_297
*1200 FILLER_3_299
*1201 FILLER_3_301
*1202 FILLER_3_309
*1203 FILLER_3_317
*1204 FILLER_3_325
*1205 FILLER_3_333
*1206 FILLER_3_341
*1207 FILLER_3_349
*1208 FILLER_3_357
*1209 FILLER_3_359
*1210 FILLER_3_361
*1211 FILLER_3_369
*1212 FILLER_3_377
*1213 FILLER_3_385
*1214 FILLER_3_393
*1215 FILLER_3_401
*1216 FILLER_3_409
*1217 FILLER_3_417
*1218 FILLER_3_419
*1219 FILLER_3_421
*1220 FILLER_3_429
*1221 FILLER_3_437
*1222 FILLER_3_445
*1223 FILLER_3_453
*1224 FILLER_3_461
*1225 FILLER_4_4
*1226 FILLER_4_12
*1227 FILLER_4_20
*1228 FILLER_4_28
*1229 FILLER_4_31
*1230 FILLER_4_39
*1231 FILLER_4_47
*1232 FILLER_4_55
*1233 FILLER_4_63
*1234 FILLER_4_71
*1235 FILLER_4_79
*1236 FILLER_4_87
*1237 FILLER_4_89
*1238 FILLER_4_91
*1239 FILLER_4_99
*1240 FILLER_4_107
*1241 FILLER_4_115
*1242 FILLER_4_123
*1243 FILLER_4_131
*1244 FILLER_4_139
*1245 FILLER_4_147
*1246 FILLER_4_149
*1247 FILLER_4_151
*1248 FILLER_4_159
*1249 FILLER_4_167
*1250 FILLER_4_175
*1251 FILLER_4_183
*1252 FILLER_4_191
*1253 FILLER_4_199
*1254 FILLER_4_207
*1255 FILLER_4_209
*1256 FILLER_4_211
*1257 FILLER_4_219
*1258 FILLER_4_227
*1259 FILLER_4_235
*1260 FILLER_4_243
*1261 FILLER_4_251
*1262 FILLER_4_259
*1263 FILLER_4_267
*1264 FILLER_4_269
*1265 FILLER_4_271
*1266 FILLER_4_279
*1267 FILLER_4_287
*1268 FILLER_4_295
*1269 FILLER_4_303
*1270 FILLER_4_311
*1271 FILLER_4_319
*1272 FILLER_4_327
*1273 FILLER_4_329
*1274 FILLER_4_331
*1275 FILLER_4_339
*1276 FILLER_4_347
*1277 FILLER_4_355
*1278 FILLER_4_363
*1279 FILLER_4_371
*1280 FILLER_4_379
*1281 FILLER_4_387
*1282 FILLER_4_389
*1283 FILLER_4_391
*1284 FILLER_4_399
*1285 FILLER_4_407
*1286 FILLER_4_415
*1287 FILLER_4_423
*1288 FILLER_4_431
*1289 FILLER_4_439
*1290 FILLER_4_447
*1291 FILLER_4_449
*1292 FILLER_4_451
*1293 FILLER_4_459
*1294 FILLER_5_4
*1295 FILLER_5_12
*1296 FILLER_5_20
*1297 FILLER_5_28
*1298 FILLER_5_31
*1299 FILLER_5_39
*1300 FILLER_5_47
*1301 FILLER_5_55
*1302 FILLER_5_59
*1303 FILLER_5_61
*1304 FILLER_5_69
*1305 FILLER_5_77
*1306 FILLER_5_85
*1307 FILLER_5_89
*1308 FILLER_5_91
*1309 FILLER_5_99
*1310 FILLER_5_107
*1311 FILLER_5_115
*1312 FILLER_5_119
*1313 FILLER_5_121
*1314 FILLER_5_129
*1315 FILLER_5_137
*1316 FILLER_5_145
*1317 FILLER_5_149
*1318 FILLER_5_151
*1319 FILLER_5_159
*1320 FILLER_5_167
*1321 FILLER_5_175
*1322 FILLER_5_179
*1323 FILLER_5_181
*1324 FILLER_5_189
*1325 FILLER_5_197
*1326 FILLER_5_205
*1327 FILLER_5_209
*1328 FILLER_5_211
*1329 FILLER_5_219
*1330 FILLER_5_227
*1331 FILLER_5_235
*1332 FILLER_5_239
*1333 FILLER_5_241
*1334 FILLER_5_249
*1335 FILLER_5_257
*1336 FILLER_5_265
*1337 FILLER_5_269
*1338 FILLER_5_271
*1339 FILLER_5_279
*1340 FILLER_5_287
*1341 FILLER_5_295
*1342 FILLER_5_299
*1343 FILLER_5_301
*1344 FILLER_5_309
*1345 FILLER_5_317
*1346 FILLER_5_325
*1347 FILLER_5_329
*1348 FILLER_5_331
*1349 FILLER_5_339
*1350 FILLER_5_347
*1351 FILLER_5_355
*1352 FILLER_5_359
*1353 FILLER_5_361
*1354 FILLER_5_369
*1355 FILLER_5_377
*1356 FILLER_5_385
*1357 FILLER_5_389
*1358 FILLER_5_391
*1359 FILLER_5_399
*1360 FILLER_5_407
*1361 FILLER_5_415
*1362 FILLER_5_419
*1363 FILLER_5_421
*1364 FILLER_5_429
*1365 FILLER_5_437
*1366 FILLER_5_445
*1367 FILLER_5_449
*1368 FILLER_5_451
*1369 FILLER_5_459
*1370 FILLER_6_4
*1371 FILLER_6_12
*1372 FILLER_6_20
*1373 FILLER_6_28
*1374 FILLER_6_31
*1375 FILLER_6_35
*1376 FILLER_6_332
*1377 FILLER_6_340
*1378 FILLER_6_348
*1379 FILLER_6_356
*1380 FILLER_6_359
*1381 FILLER_6_367
*1382 FILLER_6_375
*1383 FILLER_6_383
*1384 FILLER_6_391
*1385 FILLER_6_399
*1386 FILLER_6_407
*1387 FILLER_6_415
*1388 FILLER_6_417
*1389 FILLER_6_419
*1390 FILLER_6_427
*1391 FILLER_6_435
*1392 FILLER_6_443
*1393 FILLER_6_451
*1394 FILLER_6_459
*1395 FILLER_7_4
*1396 FILLER_7_12
*1397 FILLER_7_20
*1398 FILLER_7_28
*1399 FILLER_7_332
*1400 FILLER_7_340
*1401 FILLER_7_348
*1402 FILLER_7_356
*1403 FILLER_7_364
*1404 FILLER_7_372
*1405 FILLER_7_380
*1406 FILLER_7_389
*1407 FILLER_7_397
*1408 FILLER_7_405
*1409 FILLER_7_413
*1410 FILLER_7_421
*1411 FILLER_7_429
*1412 FILLER_7_437
*1413 FILLER_7_445
*1414 FILLER_7_447
*1415 FILLER_7_449
*1416 FILLER_7_457
*1417 FILLER_7_461
*1418 FILLER_8_4
*1419 FILLER_8_12
*1420 FILLER_8_20
*1421 FILLER_8_28
*1422 FILLER_8_31
*1423 FILLER_8_35
*1424 FILLER_8_332
*1425 FILLER_8_340
*1426 FILLER_8_348
*1427 FILLER_8_356
*1428 FILLER_8_359
*1429 FILLER_8_367
*1430 FILLER_8_375
*1431 FILLER_8_383
*1432 FILLER_8_391
*1433 FILLER_8_399
*1434 FILLER_8_407
*1435 FILLER_8_415
*1436 FILLER_8_417
*1437 FILLER_8_419
*1438 FILLER_8_427
*1439 FILLER_8_435
*1440 FILLER_8_443
*1441 FILLER_8_451
*1442 FILLER_8_459
*1443 FILLER_9_4
*1444 FILLER_9_12
*1445 FILLER_9_20
*1446 FILLER_9_28
*1447 FILLER_9_332
*1448 FILLER_9_340
*1449 FILLER_9_348
*1450 FILLER_9_356
*1451 FILLER_9_364
*1452 FILLER_9_372
*1453 FILLER_9_380
*1454 FILLER_9_389
*1455 FILLER_9_397
*1456 FILLER_9_405
*1457 FILLER_9_413
*1458 FILLER_9_421
*1459 FILLER_9_429
*1460 FILLER_9_437
*1461 FILLER_9_445
*1462 FILLER_9_447
*1463 FILLER_9_449
*1464 FILLER_9_457
*1465 FILLER_9_461
*1466 FILLER_10_4
*1467 FILLER_10_12
*1468 FILLER_10_20
*1469 FILLER_10_28
*1470 FILLER_10_31
*1471 FILLER_10_35
*1472 FILLER_10_332
*1473 FILLER_10_340
*1474 FILLER_10_348
*1475 FILLER_10_356
*1476 FILLER_10_359
*1477 FILLER_10_367
*1478 FILLER_10_375
*1479 FILLER_10_383
*1480 FILLER_10_391
*1481 FILLER_10_399
*1482 FILLER_10_407
*1483 FILLER_10_415
*1484 FILLER_10_417
*1485 FILLER_10_419
*1486 FILLER_10_427
*1487 FILLER_10_435
*1488 FILLER_10_443
*1489 FILLER_10_451
*1490 FILLER_10_459
*1491 FILLER_11_4
*1492 FILLER_11_12
*1493 FILLER_11_20
*1494 FILLER_11_28
*1495 FILLER_11_332
*1496 FILLER_11_340
*1497 FILLER_11_348
*1498 FILLER_11_356
*1499 FILLER_11_364
*1500 FILLER_11_372
*1501 FILLER_11_380
*1502 FILLER_11_389
*1503 FILLER_11_397
*1504 FILLER_11_405
*1505 FILLER_11_413
*1506 FILLER_11_421
*1507 FILLER_11_429
*1508 FILLER_11_437
*1509 FILLER_11_445
*1510 FILLER_11_447
*1511 FILLER_11_449
*1512 FILLER_11_457
*1513 FILLER_11_461
*1514 FILLER_12_4
*1515 FILLER_12_12
*1516 FILLER_12_20
*1517 FILLER_12_28
*1518 FILLER_12_31
*1519 FILLER_12_35
*1520 FILLER_12_332
*1521 FILLER_12_340
*1522 FILLER_12_348
*1523 FILLER_12_356
*1524 FILLER_12_359
*1525 FILLER_12_367
*1526 FILLER_12_375
*1527 FILLER_12_383
*1528 FILLER_12_387
*1529 FILLER_12_389
*1530 FILLER_12_397
*1531 FILLER_12_405
*1532 FILLER_12_413
*1533 FILLER_12_417
*1534 FILLER_12_419
*1535 FILLER_12_427
*1536 FILLER_12_435
*1537 FILLER_12_443
*1538 FILLER_12_447
*1539 FILLER_12_449
*1540 FILLER_12_457
*1541 FILLER_12_461
*1542 FILLER_13_4
*1543 FILLER_13_12
*1544 FILLER_13_20
*1545 FILLER_13_28
*1546 FILLER_13_31
*1547 FILLER_13_35
*1548 FILLER_13_80
*1549 FILLER_13_88
*1550 FILLER_13_96
*1551 FILLER_13_104
*1552 FILLER_13_107
*1553 FILLER_13_115
*1554 FILLER_13_123
*1555 FILLER_13_131
*1556 FILLER_13_135
*1557 FILLER_13_137
*1558 FILLER_13_145
*1559 FILLER_13_153
*1560 FILLER_13_161
*1561 FILLER_13_165
*1562 FILLER_13_167
*1563 FILLER_13_175
*1564 FILLER_13_183
*1565 FILLER_13_191
*1566 FILLER_13_195
*1567 FILLER_13_197
*1568 FILLER_13_205
*1569 FILLER_13_213
*1570 FILLER_13_221
*1571 FILLER_13_225
*1572 FILLER_13_227
*1573 FILLER_13_235
*1574 FILLER_13_243
*1575 FILLER_13_251
*1576 FILLER_13_255
*1577 FILLER_13_257
*1578 FILLER_13_265
*1579 FILLER_13_273
*1580 FILLER_13_281
*1581 FILLER_13_285
*1582 FILLER_13_287
*1583 FILLER_13_332
*1584 FILLER_13_340
*1585 FILLER_13_348
*1586 FILLER_13_356
*1587 FILLER_13_359
*1588 FILLER_13_367
*1589 FILLER_13_375
*1590 FILLER_13_383
*1591 FILLER_13_387
*1592 FILLER_13_389
*1593 FILLER_13_397
*1594 FILLER_13_405
*1595 FILLER_13_413
*1596 FILLER_13_417
*1597 FILLER_13_419
*1598 FILLER_13_427
*1599 FILLER_13_435
*1600 FILLER_13_443
*1601 FILLER_13_447
*1602 FILLER_13_449
*1603 FILLER_13_457
*1604 FILLER_13_461
*1605 FILLER_14_4
*1606 FILLER_14_12
*1607 FILLER_14_20
*1608 FILLER_14_28
*1609 FILLER_14_31
*1610 FILLER_14_35
*1611 FILLER_14_80
*1612 FILLER_14_88
*1613 FILLER_14_96
*1614 FILLER_14_104
*1615 FILLER_14_107
*1616 FILLER_14_115
*1617 FILLER_14_123
*1618 FILLER_14_131
*1619 FILLER_14_139
*1620 FILLER_14_147
*1621 FILLER_14_155
*1622 FILLER_14_163
*1623 FILLER_14_165
*1624 FILLER_14_167
*1625 FILLER_14_175
*1626 FILLER_14_183
*1627 FILLER_14_191
*1628 FILLER_14_199
*1629 FILLER_14_207
*1630 FILLER_14_215
*1631 FILLER_14_223
*1632 FILLER_14_225
*1633 FILLER_14_227
*1634 FILLER_14_235
*1635 FILLER_14_243
*1636 FILLER_14_251
*1637 FILLER_14_259
*1638 FILLER_14_267
*1639 FILLER_14_275
*1640 FILLER_14_283
*1641 FILLER_14_285
*1642 FILLER_14_287
*1643 FILLER_14_332
*1644 FILLER_14_340
*1645 FILLER_14_348
*1646 FILLER_14_356
*1647 FILLER_14_359
*1648 FILLER_14_367
*1649 FILLER_14_375
*1650 FILLER_14_383
*1651 FILLER_14_391
*1652 FILLER_14_399
*1653 FILLER_14_407
*1654 FILLER_14_415
*1655 FILLER_14_417
*1656 FILLER_14_419
*1657 FILLER_14_427
*1658 FILLER_14_435
*1659 FILLER_14_443
*1660 FILLER_14_451
*1661 FILLER_14_459
*1662 FILLER_15_4
*1663 FILLER_15_12
*1664 FILLER_15_20
*1665 FILLER_15_28
*1666 FILLER_15_80
*1667 FILLER_15_88
*1668 FILLER_15_96
*1669 FILLER_15_104
*1670 FILLER_15_112
*1671 FILLER_15_120
*1672 FILLER_15_128
*1673 FILLER_15_137
*1674 FILLER_15_145
*1675 FILLER_15_153
*1676 FILLER_15_161
*1677 FILLER_15_169
*1678 FILLER_15_177
*1679 FILLER_15_185
*1680 FILLER_15_193
*1681 FILLER_15_195
*1682 FILLER_15_197
*1683 FILLER_15_205
*1684 FILLER_15_213
*1685 FILLER_15_221
*1686 FILLER_15_229
*1687 FILLER_15_237
*1688 FILLER_15_245
*1689 FILLER_15_253
*1690 FILLER_15_255
*1691 FILLER_15_257
*1692 FILLER_15_265
*1693 FILLER_15_273
*1694 FILLER_15_281
*1695 FILLER_15_332
*1696 FILLER_15_340
*1697 FILLER_15_348
*1698 FILLER_15_356
*1699 FILLER_15_364
*1700 FILLER_15_372
*1701 FILLER_15_380
*1702 FILLER_15_389
*1703 FILLER_15_397
*1704 FILLER_15_405
*1705 FILLER_15_413
*1706 FILLER_15_421
*1707 FILLER_15_429
*1708 FILLER_15_437
*1709 FILLER_15_445
*1710 FILLER_15_447
*1711 FILLER_15_449
*1712 FILLER_15_457
*1713 FILLER_15_461
*1714 FILLER_16_4
*1715 FILLER_16_12
*1716 FILLER_16_20
*1717 FILLER_16_28
*1718 FILLER_16_31
*1719 FILLER_16_35
*1720 FILLER_16_80
*1721 FILLER_16_88
*1722 FILLER_16_96
*1723 FILLER_16_104
*1724 FILLER_16_107
*1725 FILLER_16_115
*1726 FILLER_16_123
*1727 FILLER_16_131
*1728 FILLER_16_139
*1729 FILLER_16_147
*1730 FILLER_16_155
*1731 FILLER_16_163
*1732 FILLER_16_165
*1733 FILLER_16_167
*1734 FILLER_16_175
*1735 FILLER_16_183
*1736 FILLER_16_191
*1737 FILLER_16_199
*1738 FILLER_16_207
*1739 FILLER_16_215
*1740 FILLER_16_223
*1741 FILLER_16_225
*1742 FILLER_16_227
*1743 FILLER_16_235
*1744 FILLER_16_243
*1745 FILLER_16_251
*1746 FILLER_16_259
*1747 FILLER_16_267
*1748 FILLER_16_275
*1749 FILLER_16_283
*1750 FILLER_16_285
*1751 FILLER_16_287
*1752 FILLER_16_332
*1753 FILLER_16_340
*1754 FILLER_16_348
*1755 FILLER_16_356
*1756 FILLER_16_359
*1757 FILLER_16_367
*1758 FILLER_16_375
*1759 FILLER_16_383
*1760 FILLER_16_391
*1761 FILLER_16_399
*1762 FILLER_16_407
*1763 FILLER_16_415
*1764 FILLER_16_417
*1765 FILLER_16_419
*1766 FILLER_16_427
*1767 FILLER_16_435
*1768 FILLER_16_443
*1769 FILLER_16_451
*1770 FILLER_16_459
*1771 FILLER_17_4
*1772 FILLER_17_12
*1773 FILLER_17_20
*1774 FILLER_17_28
*1775 FILLER_17_80
*1776 FILLER_17_88
*1777 FILLER_17_96
*1778 FILLER_17_104
*1779 FILLER_17_112
*1780 FILLER_17_120
*1781 FILLER_17_128
*1782 FILLER_17_137
*1783 FILLER_17_145
*1784 FILLER_17_153
*1785 FILLER_17_161
*1786 FILLER_17_169
*1787 FILLER_17_177
*1788 FILLER_17_185
*1789 FILLER_17_193
*1790 FILLER_17_195
*1791 FILLER_17_197
*1792 FILLER_17_205
*1793 FILLER_17_213
*1794 FILLER_17_221
*1795 FILLER_17_229
*1796 FILLER_17_237
*1797 FILLER_17_245
*1798 FILLER_17_253
*1799 FILLER_17_255
*1800 FILLER_17_257
*1801 FILLER_17_265
*1802 FILLER_17_273
*1803 FILLER_17_281
*1804 FILLER_17_332
*1805 FILLER_17_340
*1806 FILLER_17_348
*1807 FILLER_17_356
*1808 FILLER_17_364
*1809 FILLER_17_372
*1810 FILLER_17_380
*1811 FILLER_17_389
*1812 FILLER_17_397
*1813 FILLER_17_405
*1814 FILLER_17_413
*1815 FILLER_17_421
*1816 FILLER_17_429
*1817 FILLER_17_437
*1818 FILLER_17_445
*1819 FILLER_17_447
*1820 FILLER_17_449
*1821 FILLER_17_457
*1822 FILLER_17_461
*1823 FILLER_18_4
*1824 FILLER_18_12
*1825 FILLER_18_20
*1826 FILLER_18_28
*1827 FILLER_18_31
*1828 FILLER_18_35
*1829 FILLER_18_80
*1830 FILLER_18_88
*1831 FILLER_18_96
*1832 FILLER_18_104
*1833 FILLER_18_107
*1834 FILLER_18_115
*1835 FILLER_18_123
*1836 FILLER_18_131
*1837 FILLER_18_139
*1838 FILLER_18_147
*1839 FILLER_18_155
*1840 FILLER_18_163
*1841 FILLER_18_165
*1842 FILLER_18_167
*1843 FILLER_18_175
*1844 FILLER_18_183
*1845 FILLER_18_191
*1846 FILLER_18_199
*1847 FILLER_18_207
*1848 FILLER_18_215
*1849 FILLER_18_223
*1850 FILLER_18_225
*1851 FILLER_18_227
*1852 FILLER_18_235
*1853 FILLER_18_243
*1854 FILLER_18_251
*1855 FILLER_18_259
*1856 FILLER_18_267
*1857 FILLER_18_275
*1858 FILLER_18_283
*1859 FILLER_18_285
*1860 FILLER_18_287
*1861 FILLER_18_332
*1862 FILLER_18_340
*1863 FILLER_18_348
*1864 FILLER_18_356
*1865 FILLER_18_359
*1866 FILLER_18_367